
 ===================================================
  XFOIL Version 6.99
  Copyright (C) 2000   Mark Drela, Harold Youngren

  This software comes with ABSOLUTELY NO WARRANTY,
    subject to the GNU General Public License.

  Caveat computor
 ===================================================

 File  xfoil.def  not found

   QUIT    Exit program

  .OPER    Direct operating point(s)
  .MDES    Complex mapping design routine
  .QDES    Surface speed design routine
  .GDES    Geometry design routine

   SAVE f  Write airfoil to labeled coordinate file
   PSAV f  Write airfoil to plain coordinate file
   ISAV f  Write airfoil to ISES coordinate file
   MSAV f  Write airfoil to MSES coordinate file
   REVE    Reverse written-airfoil node ordering

   LOAD f  Read buffer airfoil from coordinate file
   NACA i  Set NACA 4,5-digit airfoil and buffer airfoil
   INTE    Set buffer airfoil by interpolating two airfoils
   NORM    Buffer airfoil normalization toggle
   XYCM rr Change CM reference location, currently  0.25000 0.00000

   BEND    Display structural properties of current airfoil

   PCOP    Set current-airfoil panel nodes directly from buffer airfoil points
   PANE    Set current-airfoil panel nodes ( 160 ) based on curvature
  .PPAR    Show/change paneling

  .PLOP    Plotting options

   WDEF f  Write  current-settings file
   RDEF f  Reread current-settings file
   NAME s  Specify new airfoil name
   NINC    Increment name version number

   Z       Zoom    | (available in all menus)
   U       Unzoom  | 

 XFOIL   c>   Max thickness =     0.100029  at x =   0.300
 Max camber    =     0.020000  at x =   0.202

 Buffer airfoil set using 331 points

 Blunt trailing edge.  Gap =  0.00210

 Paneling parameters used...
   Number of panel nodes       160
   Panel bunching parameter    1.000
   TE/LE panel density ratio   0.150
   Refined-area/LE panel density ratio    0.200
   Top    side refined area x/c limits  1.000 1.000
   Bottom side refined area x/c limits  1.000 1.000

 XFOIL   c>  
    Present paneling parameters...
  N  i   Number of panel nodes       160
  P  r   Panel bunching parameter    1.000
  T  r   TE/LE panel density ratio   0.150
  R  r   Refined area/LE  panel density ratio   0.200
  XT rr  Top    side refined area x/c limits    1.000 1.000
  XB rr  Bottom side refined area x/c limits    1.000 1.000
  Z oom
  U nzoom

Change what ? (<cr> if nothing else)   c>  
Enter number of panel nodes   i>  
Change what ? (<cr> if nothing else)   c>  
 Blunt trailing edge.  Gap =  0.00210

 Maximum panel corner angle = 10.270   at  i,x,y  =  84   0.0007  -0.0038

    Present paneling parameters...
  N  i   Number of panel nodes       160
  P  r   Panel bunching parameter    1.000
  T  r   TE/LE panel density ratio   0.150
  R  r   Refined area/LE  panel density ratio   0.200
  XT rr  Top    side refined area x/c limits    1.000 1.000
  XB rr  Bottom side refined area x/c limits    1.000 1.000
  Z oom
  U nzoom

Change what ? (<cr> if nothing else)   c>  
 XFOIL   c>  
.OPERi   c>   Current iteration limit:          10

Enter new iteration limit   i>  
.OPERi   c>  
 XFOIL   c>  
 XFOIL   c>  
 XFOIL   c>  
 XFOIL   c>  
.OPERi   c>  
.OPERi   c>  
.OPERi   c>  
 M  =    0.0000
 Re =  12678600

.OPERv   c>  
 Polar  1 newly created for accumulation
 Airfoil archived with polar: NACA 2210                                       

Enter  polar save filename  OR  <return> for no file   s>  
 Polar save file will NOT be written

Enter  polar dump filename  OR  <return> for no file   s>  
 Polar dump file will NOT be written

 Polar accumulation enabled

.OPERva   c>   Calculating unit vorticity distributions ...
 Calculating wake trajectory ...
 Calculating source influence matrix ...

 Solving BL system ...

 Initializing BL ...
    side            1  ...
 MRCHUE: Inverse mode at  21     Hk =   6.630
 MRCHUE: Inverse mode at  22     Hk =   2.500
 MRCHUE: Inverse mode at  92     Hk =   2.500
    side            2  ...
 MRCHUE: Inverse mode at  68     Hk =   5.562
 MRCHUE: Inverse mode at  69     Hk =   2.500

 Side 1  free  transition at x/c =  0.0136   21
 Side 2  free  transition at x/c =  0.9849   69

   1   rms: 0.1597E+00   max: -.1702E+01   D at   22  1   RLX: 0.294
       a =  8.000      CL =  1.1469
      Cm = -0.0471     CD =  0.00659   =>   CDf =  0.00419    CDp =  0.00241

 Side 1  free  transition at x/c =  0.0139   21
 Side 2  free  transition at x/c =  0.9909   69

   2   rms: 0.1240E+00   max: -.1484E+01   D at   22  1   RLX: 0.337
       a =  8.000      CL =  1.1335
      Cm = -0.0439     CD =  0.00694   =>   CDf =  0.00420    CDp =  0.00274

 Side 1  free  transition at x/c =  0.0141   21
 Side 2  free  transition at x/c =  0.9940   69
 idif Ue xi dudx           1  0.12230321      4.01711464E-03   30.445536    
 Uenew xinew           2  7.20434031E-03  2.36630440E-04

   3   rms: 0.9311E-01   max: -.9921E+00   D at   22  1   RLX: 0.504
       a =  8.000      CL =  1.1117
      Cm = -0.0390     CD =  0.00731   =>   CDf =  0.00434    CDp =  0.00297

 MRCHDU: Convergence failed at  71  side 2    Res =  0.5114E+01
 Side 1  free  transition at x/c =  0.0143   20
 Side 2 forced transition at x/c =  1.0000   71

   4   rms: 0.5076E-01   max: -.6112E+00   C at   71  2   RLX: 0.818
       a =  8.000      CL =  1.1063
      Cm = -0.0378     CD =  0.00766   =>   CDf =  0.00424    CDp =  0.00342

 Side 1  free  transition at x/c =  0.0178   21
 Side 2 forced transition at x/c =  1.0000   71

   5   rms: 0.1648E-01   max: -.2783E+00   C at   21  1
       a =  8.000      CL =  1.1017
      Cm = -0.0368     CD =  0.00767   =>   CDf =  0.00422    CDp =  0.00344

 Side 1  free  transition at x/c =  0.0181   21
 Side 2 forced transition at x/c =  1.0000   71

   6   rms: 0.4864E-03   max: -.5657E-02   D at   21  1
       a =  8.000      CL =  1.1013
      Cm = -0.0367     CD =  0.00767   =>   CDf =  0.00421    CDp =  0.00345

 Side 1  free  transition at x/c =  0.0181   21
 Side 2 forced transition at x/c =  1.0000   71

   7   rms: 0.2564E-05   max: -.5240E-04   C at   21  1
       a =  8.000      CL =  1.1013
      Cm = -0.0367     CD =  0.00767   =>   CDf =  0.00421    CDp =  0.00345
 plradd ia,ip,cpol            1          90  1.89405342E-03

 Point added to stored polar  1
 Save file unspecified or not available
 Dump file unspecified or not available

.OPERva   c>  
.OPERva   c>  
.OPERva   c>  
        airfoil                    Re           Mach       Ncrit  XtripT  XtripB     file
       ------------------------  ------------  ----------  -----  ------  ------    -------------------
 >  1  NACA 2210                 1.268e7       0.000        9.00   1.000   1.000    

Enter polar output filename   s>  
.OPERva   c>  
 ==============================================================
 Polar  1
  
       XFOIL         Version 6.99
  
 Calculated polar for: NACA 2210                                       
  
 1 1 Reynolds number fixed          Mach number fixed         
  
 xtrf =   1.000 (top)        1.000 (bottom)  
 Mach =   0.000     Re =    12.679 e 6     Ncrit =   9.000
  
   alpha    CL        CD       CDp       CM     Top_Xtr  Bot_Xtr
  ------ -------- --------- --------- -------- -------- --------
   8.000   1.1013   0.00767   0.00345  -0.0367   0.0181   1.0000

.OPERva   c>  
 XFOIL   c>  