
 ===================================================
  XFOIL Version 6.99
  Copyright (C) 2000   Mark Drela, Harold Youngren

  This software comes with ABSOLUTELY NO WARRANTY,
    subject to the GNU General Public License.

  Caveat computor
 ===================================================

 File  xfoil.def  not found

   QUIT    Exit program

  .OPER    Direct operating point(s)
  .MDES    Complex mapping design routine
  .QDES    Surface speed design routine
  .GDES    Geometry design routine

   SAVE f  Write airfoil to labeled coordinate file
   PSAV f  Write airfoil to plain coordinate file
   ISAV f  Write airfoil to ISES coordinate file
   MSAV f  Write airfoil to MSES coordinate file
   REVE    Reverse written-airfoil node ordering

   LOAD f  Read buffer airfoil from coordinate file
   NACA i  Set NACA 4,5-digit airfoil and buffer airfoil
   INTE    Set buffer airfoil by interpolating two airfoils
   NORM    Buffer airfoil normalization toggle
   XYCM rr Change CM reference location, currently  0.25000 0.00000

   BEND    Display structural properties of current airfoil

   PCOP    Set current-airfoil panel nodes directly from buffer airfoil points
   PANE    Set current-airfoil panel nodes ( 160 ) based on curvature
  .PPAR    Show/change paneling

  .PLOP    Plotting options

   WDEF f  Write  current-settings file
   RDEF f  Reread current-settings file
   NAME s  Specify new airfoil name
   NINC    Increment name version number

   Z       Zoom    | (available in all menus)
   U       Unzoom  | 

 XFOIL   c>   Max thickness =     0.120035  at x =   0.300
 Max camber    =     0.020000  at x =   0.402

 Buffer airfoil set using 331 points

 Blunt trailing edge.  Gap =  0.00252

 Paneling parameters used...
   Number of panel nodes       160
   Panel bunching parameter    1.000
   TE/LE panel density ratio   0.150
   Refined-area/LE panel density ratio    0.200
   Top    side refined area x/c limits  1.000 1.000
   Bottom side refined area x/c limits  1.000 1.000

 XFOIL   c>  
    Present paneling parameters...
  N  i   Number of panel nodes       160
  P  r   Panel bunching parameter    1.000
  T  r   TE/LE panel density ratio   0.150
  R  r   Refined area/LE  panel density ratio   0.200
  XT rr  Top    side refined area x/c limits    1.000 1.000
  XB rr  Bottom side refined area x/c limits    1.000 1.000
  Z oom
  U nzoom

Change what ? (<cr> if nothing else)   c>  
Enter number of panel nodes   i>  
Change what ? (<cr> if nothing else)   c>  
 Blunt trailing edge.  Gap =  0.00252

 Maximum panel corner angle =  7.275   at  i,x,y  =  84   0.0006  -0.0041

    Present paneling parameters...
  N  i   Number of panel nodes       160
  P  r   Panel bunching parameter    1.000
  T  r   TE/LE panel density ratio   0.150
  R  r   Refined area/LE  panel density ratio   0.200
  XT rr  Top    side refined area x/c limits    1.000 1.000
  XB rr  Bottom side refined area x/c limits    1.000 1.000
  Z oom
  U nzoom

Change what ? (<cr> if nothing else)   c>  
 XFOIL   c>  
.OPERi   c>   Current iteration limit:          10

Enter new iteration limit   i>  
.OPERi   c>  
 XFOIL   c>  
 XFOIL   c>  
 XFOIL   c>  
 XFOIL   c>  
.OPERi   c>  
.OPERi   c>  
 Sonic Cp =    -16.31      Sonic Q/Qinf =     4.583


.OPERi   c>  
 M  =    0.2000
 Re =   1000000

.OPERv   c>  
 Polar  1 newly created for accumulation
 Airfoil archived with polar: NACA 2412                                       

Enter  polar save filename  OR  <return> for no file   s>  
 Polar save file will NOT be written

Enter  polar dump filename  OR  <return> for no file   s>  
 Polar dump file will NOT be written

 Polar accumulation enabled

.OPERva   c>   Calculating unit vorticity distributions ...
 Calculating wake trajectory ...
 Calculating source influence matrix ...

 Solving BL system ...

 Initializing BL ...
    side            1  ...
 MRCHUE: Inverse mode at  42     Hk =   3.692
 MRCHUE: Inverse mode at  43     Hk =   2.500
 MRCHUE: Inverse mode at  88     Hk =   2.500
 MRCHUE: Inverse mode at  89     Hk =   2.500
    side            2  ...
 MRCHUE: Inverse mode at  68     Hk =   3.976
 MRCHUE: Inverse mode at  69     Hk =   4.634
 MRCHUE: Inverse mode at  70     Hk =   5.237
 MRCHUE: Inverse mode at  71     Hk =   5.769
 MRCHUE: Inverse mode at  72     Hk =   6.219
 MRCHUE: Inverse mode at  73     Hk =   6.475

 Side 1  free  transition at x/c =  0.2557   42
 Side 2 forced transition at x/c =  1.0000   73

   1   rms: 0.2065E+00   max: 0.1149E+01   D at   76  2   RLX: 0.875
       a =  5.000      CL =  0.8480
      Cm = -0.0588     CD =  0.00745   =>   CDf =  0.00521    CDp =  0.00224

 Side 1  free  transition at x/c =  0.2932   45
 Side 2 forced transition at x/c =  1.0000   73

   2   rms: 0.4232E-01   max: 0.4800E+00   C at   73  2
       a =  5.000      CL =  0.8254
      Cm = -0.0535     CD =  0.00785   =>   CDf =  0.00511    CDp =  0.00274

 Side 1  free  transition at x/c =  0.3010   45
 Side 2 forced transition at x/c =  1.0000   73

   3   rms: 0.8716E-02   max: 0.1508E+00   C at   73  2
       a =  5.000      CL =  0.8271
      Cm = -0.0539     CD =  0.00796   =>   CDf =  0.00500    CDp =  0.00296

 Side 1  free  transition at x/c =  0.3007   45
 Side 2 forced transition at x/c =  1.0000   73

   4   rms: 0.7911E-03   max: 0.1193E-01   C at   73  2
       a =  5.000      CL =  0.8274
      Cm = -0.0540     CD =  0.00796   =>   CDf =  0.00500    CDp =  0.00297

 Side 1  free  transition at x/c =  0.3006   45
 Side 2 forced transition at x/c =  1.0000   73

   5   rms: 0.5646E-05   max: 0.8178E-04   C at   73  2
       a =  5.000      CL =  0.8274
      Cm = -0.0540     CD =  0.00796   =>   CDf =  0.00500    CDp =  0.00297
 plradd ia,ip,cpol            1          88  1.14365043E-02

 Point added to stored polar  1
 Save file unspecified or not available
 Dump file unspecified or not available

.OPERva   c>  
.OPERva   c>  
.OPERva   c>  
        airfoil                    Re           Mach       Ncrit  XtripT  XtripB     file
       ------------------------  ------------  ----------  -----  ------  ------    -------------------
 >  1  NACA 2412                 1.000e6       0.200        9.00   1.000   1.000    

Enter polar output filename   s>  
.OPERva   c>  
 ==============================================================
 Polar  1
  
       XFOIL         Version 6.99
  
 Calculated polar for: NACA 2412                                       
  
 1 1 Reynolds number fixed          Mach number fixed         
  
 xtrf =   1.000 (top)        1.000 (bottom)  
 Mach =   0.200     Re =     1.000 e 6     Ncrit =   9.000
  
   alpha    CL        CD       CDp       CM     Top_Xtr  Bot_Xtr
  ------ -------- --------- --------- -------- -------- --------
   5.000   0.8274   0.00796   0.00297  -0.0540   0.3006   1.0000

.OPERva   c>  
 XFOIL   c>  