
 ===================================================
  XFOIL Version 6.99
  Copyright (C) 2000   Mark Drela, Harold Youngren

  This software comes with ABSOLUTELY NO WARRANTY,
    subject to the GNU General Public License.

  Caveat computor
 ===================================================

 File  xfoil.def  not found

   QUIT    Exit program

  .OPER    Direct operating point(s)
  .MDES    Complex mapping design routine
  .QDES    Surface speed design routine
  .GDES    Geometry design routine

   SAVE f  Write airfoil to labeled coordinate file
   PSAV f  Write airfoil to plain coordinate file
   ISAV f  Write airfoil to ISES coordinate file
   MSAV f  Write airfoil to MSES coordinate file
   REVE    Reverse written-airfoil node ordering

   LOAD f  Read buffer airfoil from coordinate file
   NACA i  Set NACA 4,5-digit airfoil and buffer airfoil
   INTE    Set buffer airfoil by interpolating two airfoils
   NORM    Buffer airfoil normalization toggle
   XYCM rr Change CM reference location, currently  0.25000 0.00000

   BEND    Display structural properties of current airfoil

   PCOP    Set current-airfoil panel nodes directly from buffer airfoil points
   PANE    Set current-airfoil panel nodes ( 160 ) based on curvature
  .PPAR    Show/change paneling

  .PLOP    Plotting options

   WDEF f  Write  current-settings file
   RDEF f  Reread current-settings file
   NAME s  Specify new airfoil name
   NINC    Increment name version number

   Z       Zoom    | (available in all menus)
   U       Unzoom  | 

 XFOIL   c>   Max thickness =     0.070020  at x =   0.300
 Max camber    =     0.040000  at x =   0.300

 Buffer airfoil set using 331 points

 Blunt trailing edge.  Gap =  0.00147

 Paneling parameters used...
   Number of panel nodes       160
   Panel bunching parameter    1.000
   TE/LE panel density ratio   0.150
   Refined-area/LE panel density ratio    0.200
   Top    side refined area x/c limits  1.000 1.000
   Bottom side refined area x/c limits  1.000 1.000

 XFOIL   c>  
    Present paneling parameters...
  N  i   Number of panel nodes       160
  P  r   Panel bunching parameter    1.000
  T  r   TE/LE panel density ratio   0.150
  R  r   Refined area/LE  panel density ratio   0.200
  XT rr  Top    side refined area x/c limits    1.000 1.000
  XB rr  Bottom side refined area x/c limits    1.000 1.000
  Z oom
  U nzoom

Change what ? (<cr> if nothing else)   c>  
Enter number of panel nodes   i>  
Change what ? (<cr> if nothing else)   c>  
 Blunt trailing edge.  Gap =  0.00147

 Maximum panel corner angle = 19.281   at  i,x,y  =  83   0.0005  -0.0022

    Present paneling parameters...
  N  i   Number of panel nodes       160
  P  r   Panel bunching parameter    1.000
  T  r   TE/LE panel density ratio   0.150
  R  r   Refined area/LE  panel density ratio   0.200
  XT rr  Top    side refined area x/c limits    1.000 1.000
  XB rr  Bottom side refined area x/c limits    1.000 1.000
  Z oom
  U nzoom

Change what ? (<cr> if nothing else)   c>  
 XFOIL   c>  
.OPERi   c>   Current iteration limit:          10

Enter new iteration limit   i>  
.OPERi   c>  
 XFOIL   c>  
 XFOIL   c>  
 XFOIL   c>  
 XFOIL   c>  
.OPERi   c>  
.OPERi   c>  
.OPERi   c>  
 M  =    0.0000
 Re =   8452390

.OPERv   c>  
 Polar  1 newly created for accumulation
 Airfoil archived with polar: NACA 4307                                       

Enter  polar save filename  OR  <return> for no file   s>  
 Polar save file will NOT be written

Enter  polar dump filename  OR  <return> for no file   s>  
 Polar dump file will NOT be written

 Polar accumulation enabled

.OPERva   c>   Calculating unit vorticity distributions ...
 Calculating wake trajectory ...
 Calculating source influence matrix ...

 Solving BL system ...

 Initializing BL ...
    side            1  ...
 MRCHUE: Inverse mode at  11     Hk =   8.854
 MRCHUE: Inverse mode at  12     Hk =   2.500
 MRCHUE: Inverse mode at  89     Hk =   2.500
    side            2  ...
 MRCHUE: Inverse mode at  73     Hk =   3.511

 Side 1  free  transition at x/c =  0.0019   12
 Side 2 forced transition at x/c =  1.0000   73

   1   rms: 0.1531E+00   max: -.2122E+01   C at   73  2   RLX: 0.236
       a =  8.000      CL =  1.3560
      Cm = -0.0964     CD =  0.00795   =>   CDf =  0.00472    CDp =  0.00324

 Side 1  free  transition at x/c =  0.0021   12
 Side 2 forced transition at x/c =  1.0000   73

   2   rms: 0.1078E+00   max: -.1254E+01   C at   73  2   RLX: 0.399
       a =  8.000      CL =  1.3361
      Cm = -0.0930     CD =  0.00845   =>   CDf =  0.00473    CDp =  0.00372

 Side 1  free  transition at x/c =  0.0027   12
 Side 2 forced transition at x/c =  1.0000   73

   3   rms: 0.7114E-01   max: -.8930E+00   C at   73  2   RLX: 0.560
       a =  8.000      CL =  1.3172
      Cm = -0.0896     CD =  0.00899   =>   CDf =  0.00472    CDp =  0.00427

 Side 1  free  transition at x/c =  0.0042   13
 Side 2 forced transition at x/c =  1.0000   73

   4   rms: 0.3440E-01   max: -.5182E+00   C at   73  2   RLX: 0.965
       a =  8.000      CL =  1.3004
      Cm = -0.0866     CD =  0.00930   =>   CDf =  0.00470    CDp =  0.00461

 Side 1  free  transition at x/c =  0.0041   13
 Side 2 forced transition at x/c =  1.0000   73

   5   rms: 0.1884E-01   max: -.3739E+00   D at   13  1
       a =  8.000      CL =  1.2983
      Cm = -0.0861     CD =  0.00937   =>   CDf =  0.00469    CDp =  0.00468

 Side 1  free  transition at x/c =  0.0035   13
 Side 2 forced transition at x/c =  1.0000   73

   6   rms: 0.5323E-02   max: 0.8582E-01   D at   12  1
       a =  8.000      CL =  1.2982
      Cm = -0.0861     CD =  0.00938   =>   CDf =  0.00469    CDp =  0.00469

 Side 1  free  transition at x/c =  0.0033   13
 Side 2 forced transition at x/c =  1.0000   73

   7   rms: 0.4035E-03   max: 0.6777E-02   D at   12  1
       a =  8.000      CL =  1.2982
      Cm = -0.0861     CD =  0.00938   =>   CDf =  0.00469    CDp =  0.00469

 Side 1  free  transition at x/c =  0.0033   13
 Side 2 forced transition at x/c =  1.0000   73

   8   rms: 0.1872E-05   max: 0.2261E-04   D at   12  1
       a =  8.000      CL =  1.2982
      Cm = -0.0861     CD =  0.00938   =>   CDf =  0.00469    CDp =  0.00469
 plradd ia,ip,cpol            1          88  6.07059010E-05

 Point added to stored polar  1
 Save file unspecified or not available
 Dump file unspecified or not available

.OPERva   c>  
.OPERva   c>  
.OPERva   c>  
        airfoil                    Re           Mach       Ncrit  XtripT  XtripB     file
       ------------------------  ------------  ----------  -----  ------  ------    -------------------
 >  1  NACA 4307                 8.452e6       0.000        9.00   1.000   1.000    

Enter polar output filename   s>  
.OPERva   c>  
 ==============================================================
 Polar  1
  
       XFOIL         Version 6.99
  
 Calculated polar for: NACA 4307                                       
  
 1 1 Reynolds number fixed          Mach number fixed         
  
 xtrf =   1.000 (top)        1.000 (bottom)  
 Mach =   0.000     Re =     8.452 e 6     Ncrit =   9.000
  
   alpha    CL        CD       CDp       CM     Top_Xtr  Bot_Xtr
  ------ -------- --------- --------- -------- -------- --------
   8.000   1.2982   0.00938   0.00469  -0.0861   0.0033   1.0000

.OPERva   c>  
 XFOIL   c>  