
 ===================================================
  XFOIL Version 6.99
  Copyright (C) 2000   Mark Drela, Harold Youngren

  This software comes with ABSOLUTELY NO WARRANTY,
    subject to the GNU General Public License.

  Caveat computor
 ===================================================

 File  xfoil.def  not found

   QUIT    Exit program

  .OPER    Direct operating point(s)
  .MDES    Complex mapping design routine
  .QDES    Surface speed design routine
  .GDES    Geometry design routine

   SAVE f  Write airfoil to labeled coordinate file
   PSAV f  Write airfoil to plain coordinate file
   ISAV f  Write airfoil to ISES coordinate file
   MSAV f  Write airfoil to MSES coordinate file
   REVE    Reverse written-airfoil node ordering

   LOAD f  Read buffer airfoil from coordinate file
   NACA i  Set NACA 4,5-digit airfoil and buffer airfoil
   INTE    Set buffer airfoil by interpolating two airfoils
   NORM    Buffer airfoil normalization toggle
   XYCM rr Change CM reference location, currently  0.25000 0.00000

   BEND    Display structural properties of current airfoil

   PCOP    Set current-airfoil panel nodes directly from buffer airfoil points
   PANE    Set current-airfoil panel nodes ( 160 ) based on curvature
  .PPAR    Show/change paneling

  .PLOP    Plotting options

   WDEF f  Write  current-settings file
   RDEF f  Reread current-settings file
   NAME s  Specify new airfoil name
   NINC    Increment name version number

   Z       Zoom    | (available in all menus)
   U       Unzoom  | 

 XFOIL   c>   Max thickness =     0.060017  at x =   0.300
 Max camber    =     0.040000  at x =   0.402

 Buffer airfoil set using 331 points

 Blunt trailing edge.  Gap =  0.00126

 Paneling parameters used...
   Number of panel nodes       160
   Panel bunching parameter    1.000
   TE/LE panel density ratio   0.150
   Refined-area/LE panel density ratio    0.200
   Top    side refined area x/c limits  1.000 1.000
   Bottom side refined area x/c limits  1.000 1.000

 XFOIL   c>  
    Present paneling parameters...
  N  i   Number of panel nodes       160
  P  r   Panel bunching parameter    1.000
  T  r   TE/LE panel density ratio   0.150
  R  r   Refined area/LE  panel density ratio   0.200
  XT rr  Top    side refined area x/c limits    1.000 1.000
  XB rr  Bottom side refined area x/c limits    1.000 1.000
  Z oom
  U nzoom

Change what ? (<cr> if nothing else)   c>  
Enter number of panel nodes   i>  
Change what ? (<cr> if nothing else)   c>  
 Blunt trailing edge.  Gap =  0.00126

 Maximum panel corner angle = 23.931   at  i,x,y  =  82   0.0002  -0.0012

    Present paneling parameters...
  N  i   Number of panel nodes       160
  P  r   Panel bunching parameter    1.000
  T  r   TE/LE panel density ratio   0.150
  R  r   Refined area/LE  panel density ratio   0.200
  XT rr  Top    side refined area x/c limits    1.000 1.000
  XB rr  Bottom side refined area x/c limits    1.000 1.000
  Z oom
  U nzoom

Change what ? (<cr> if nothing else)   c>  
 XFOIL   c>  
.OPERi   c>   Current iteration limit:          10

Enter new iteration limit   i>  
.OPERi   c>  
 XFOIL   c>  
 XFOIL   c>  
 XFOIL   c>  
 XFOIL   c>  
.OPERi   c>  
.OPERi   c>  
.OPERi   c>  
 M  =    0.0000
 Re =  16904800

.OPERv   c>  
 Polar  1 newly created for accumulation
 Airfoil archived with polar: NACA 4406                                       

Enter  polar save filename  OR  <return> for no file   s>  
 Polar save file will NOT be written

Enter  polar dump filename  OR  <return> for no file   s>  
 Polar dump file will NOT be written

 Polar accumulation enabled

.OPERva   c>   Calculating unit vorticity distributions ...
 Calculating wake trajectory ...
 Calculating source influence matrix ...

 Solving BL system ...

 Initializing BL ...
    side            1  ...
 MRCHUE: Inverse mode at   9     Hk =  12.981
 MRCHUE: Inverse mode at  10     Hk =   2.500
 MRCHUE: Inverse mode at  87     Hk =   2.500
    side            2  ...
 MRCHUE: Inverse mode at  75     Hk =   3.667

 Side 1  free  transition at x/c =  0.0014    9
 Side 2 forced transition at x/c =  1.0000   75

   1   rms: 0.1556E+00   max: -.1629E+01   D at   10  1   RLX: 0.307
       a =  6.000      CL =  1.1594
      Cm = -0.1120     CD =  0.00676   =>   CDf =  0.00406    CDp =  0.00270

 MRCHDU: Convergence failed at  10  side 1    Res =  0.5920E+02
 MRCHDU: Convergence failed at  11  side 1    Res =  0.2016E+01
 Side 1  free  transition at x/c =  0.0082   12
 Side 2 forced transition at x/c =  1.0000   75

   2   rms: 0.1603E+00   max: -.2060E+01   D at   12  1   RLX: 0.243
       a =  6.000      CL =  1.1613
      Cm = -0.1089     CD =  0.00655   =>   CDf =  0.00407    CDp =  0.00249

 MRCHDU: Convergence failed at  12  side 1    Res =  0.2005E+01
 MRCHDU: Convergence failed at  13  side 1    Res =  0.2947E+01
 Side 1  free  transition at x/c =  0.0169   13
 Side 2 forced transition at x/c =  1.0000   75

   3   rms: 0.1675E+00   max: -.1152E+01   C at   75  2   RLX: 0.434
       a =  6.000      CL =  1.1642
      Cm = -0.1041     CD =  0.00661   =>   CDf =  0.00402    CDp =  0.00258

 Side 1  free  transition at x/c =  0.0058   11
 Side 2 forced transition at x/c =  1.0000   75
 idif Ue xi dudx           1  0.23649760      5.60212135E-03   42.215721    
 Uenew xinew           2  3.11008887E-03  7.36713409E-05

   4   rms: 0.1071E+00   max: -.8585E+00   C at   75  2   RLX: 0.582
       a =  6.000      CL =  1.1398
      Cm = -0.1050     CD =  0.00693   =>   CDf =  0.00428    CDp =  0.00266

 Side 1  free  transition at x/c =  0.0038   10
 Side 2 forced transition at x/c =  1.0000   76

   5   rms: 0.8818E-01   max: -.1141E+01   T at    2  2   RLX: 0.438
       a =  6.000      CL =  1.1307
      Cm = -0.1048     CD =  0.00702   =>   CDf =  0.00413    CDp =  0.00289

 Side 1  free  transition at x/c =  0.0031    9
 Side 2 forced transition at x/c =  1.0000   76

   6   rms: 0.2762E-01   max: -.3551E+00   C at   76  2
       a =  6.000      CL =  1.1187
      Cm = -0.1045     CD =  0.00700   =>   CDf =  0.00413    CDp =  0.00287

 Side 1  free  transition at x/c =  0.0030    9
 Side 2 forced transition at x/c =  1.0000   76

   7   rms: 0.1518E-02   max: -.3042E-01   C at   76  2
       a =  6.000      CL =  1.1182
      Cm = -0.1043     CD =  0.00701   =>   CDf =  0.00412    CDp =  0.00289

 Side 1  free  transition at x/c =  0.0030    9
 Side 2 forced transition at x/c =  1.0000   76

   8   rms: 0.7853E-05   max: -.1579E-03   C at   76  2
       a =  6.000      CL =  1.1182
      Cm = -0.1043     CD =  0.00701   =>   CDf =  0.00412    CDp =  0.00289
 plradd ia,ip,cpol            1          85  4.20638651E-04

 Point added to stored polar  1
 Save file unspecified or not available
 Dump file unspecified or not available

.OPERva   c>  
.OPERva   c>  
.OPERva   c>  
        airfoil                    Re           Mach       Ncrit  XtripT  XtripB     file
       ------------------------  ------------  ----------  -----  ------  ------    -------------------
 >  1  NACA 4406                 1.690e7       0.000        9.00   1.000   1.000    

Enter polar output filename   s>  
.OPERva   c>  
 ==============================================================
 Polar  1
  
       XFOIL         Version 6.99
  
 Calculated polar for: NACA 4406                                       
  
 1 1 Reynolds number fixed          Mach number fixed         
  
 xtrf =   1.000 (top)        1.000 (bottom)  
 Mach =   0.000     Re =    16.905 e 6     Ncrit =   9.000
  
   alpha    CL        CD       CDp       CM     Top_Xtr  Bot_Xtr
  ------ -------- --------- --------- -------- -------- --------
   6.000   1.1182   0.00701   0.00289  -0.1043   0.0030   1.0000

.OPERva   c>  
 XFOIL   c>  